# ****************************************************************************
# *  Copyright: National ICT Australia,  2007 - 2010                         *
# *  Developed at the ATP lab, Networked Systems research theme              *
# *  Author(s): Athanassios Boulis, Yuriy Tselishchev                        *
# *  This file is distributed under the terms in the attached LICENSE file.  *
# *  If you do not find this file, copies can be found by writing to:        *
# *                                                                          *
# *      NICTA, Locked Bag 9013, Alexandria, NSW 1435, Australia             *
# *      Attention:  License Inquiry.                                        *
# *                                                                          *
# ***************************************************************************/

[General]

# =============================================
# Always include the main Castalia.ini file
# =============================================
include ../Parameters/Castalia.ini

#speed 0.5m/s
sim-time-limit = 50s

SN.field_x = 100
SN.field_y = 100

SN.numNodes = 30
SN.deployment = "uniform"

# important wireless channel switch to allow mobility
SN.wirelessChannel.onlyStaticNodes = false
SN.wirelessChannel.sigma = 0
SN.wirelessChannel.bidirectionalSigma = 0

# Choose a radio and set the Tx power to a low value so
# that nodes mobility has a better effect on connectivity
SN.node[*].Communication.Radio.RadioParametersFile = "../Parameters/Radio/CC2420.txt"
SN.node[*].Communication.Radio.TxOutputPower = "-5dBm"


# These tests use big packets (2kb) to show interference clearly
# This requires to set the max pkt size in all communication layers

SN.node[*].Communication.MACProtocolName = "RofMac"
### Frame sizes ###
SN.node[*].Communication.Routing.maxNetFrameSize = 250
SN.node[*].Communication.MAC.maxNetFrameSize = 250
SN.node[*].Communication.Radio.maxNetFrameSize = 250

# Throughput test application is used to send 2000-byte
# packets to node 0 (which by default is the receiving 
# node for this app).5 packets per second will be send 
SN.node[*].ApplicationName = "ThroughputTest"
SN.node[*].Application.packet_rate = 5
SN.node[*].Application.constantDataPayload = 200


SN.node[*].Application.collectTraceInfo = false
SN.node[*].Communication.MAC.collectTraceInfo = true
SN.node[*].Communication.Routing.collectTraceInfo = false

# Nodes are moving, so seeing their location may be useful
SN.node[*].MobilityManager.collectTraceInfo = true
SN.node[0].MobilityManagerName = "NoMobilityManager"
SN.node[1..].MobilityManagerName = "LineMobilityManager"
SN.node[1..].MobilityManager.updateInterval = 0.05
SN.node[1..].MobilityManager.xCoorDestination = 50
SN.node[1..].MobilityManager.yCoorDestination = 50
SN.node[1..].MobilityManager.speed = 1





#SN.node[0].xCoor = 10
#SN.node[0].yCoor = 80

#SN.node[1].xCoor = 90
#SN.node[1].yCoor = 20
