[General]

# =============================================
# Always include the main Castalia.ini file
# =============================================
include ../Parameters/Castalia.ini


sim-time-limit = 50s

SN.field_x = 200
SN.field_y = 200

# These tests include 3 nodes each, coordinates will be specified manually
SN.numNodes = 6

# important wireless channel switch to allow mobility
SN.wirelessChannel.onlyStaticNodes = false
SN.wirelessChannel.sigma = 0
SN.wirelessChannel.bidirectionalSigma = 0

# Choose a radio and set the Tx power to a low value so
# that nodes mobility has a better effect on connectivity
SN.node[*].Communication.Radio.RadioParametersFile = "../Parameters/Radio/CC2420.txt"
SN.node[*].Communication.Radio.TxOutputPower = "-5dBm"


# These tests use big packets (2kb) to show interference clearly
# This requires to set the max pkt size in all communication layers

SN.node[*].Communication.MACProtocolName = "RofMac"
SN.node[*].Communication.Routing.maxNetFrameSize = 2500
SN.node[*].Communication.MAC.macMaxPacketSize = 2500
SN.node[*].Communication.Radio.maxPhyFrameSize = 2500

# Throughput test application is used to send 2000-byte
# packets to node 0 (which by default is the receiving 
# node for this app).5 packets per second will be send 
SN.node[*].ApplicationName = "ThroughputTest"
SN.node[*].Application.packet_rate = 5
SN.node[*].Application.constantDataPayload = 2000


SN.node[*].Application.collectTraceInfo = true
SN.node[*].Communication.MAC.collectTraceInfo = true

# Nodes are moving, so seeing their location may be useful
SN.node[*].MobilityManager.collectTraceInfo = false

# sink
SN.node[0].xCoor = 120
SN.node[0].yCoor = 120

SN.node[1].xCoor = 100
SN.node[1].yCoor = 110

SN.node[2].xCoor = 100
SN.node[2].yCoor = 100

# node in LOS of sender to sink
SN.node[3].xCoor = 110
SN.node[3].yCoor = 120

SN.node[4].xCoor = 80
SN.node[4].yCoor = 100

# this node is the only sender
SN.node[5].xCoor = 90
SN.node[5].yCoor = 120




SN.node[*].MobilityManagerName = "NoMobilityManager"












# ****************************************************************************
# *  Copyright: National ICT Australia,  2007 - 2010                         *
# *  Developed at the ATP lab, Networked Systems research theme              *
# *  Author(s): Athanassios Boulis, Yuriy Tselishchev                        *
# *  This file is distributed under the terms in the attached LICENSE file.  *
# *  If you do not find this file, copies can be found by writing to:        *
# *                                                                          *
# *      NICTA, Locked Bag 9013, Alexandria, NSW 1435, Australia             *
# *      Attention:  License Inquiry.                                        *
# *                                                                          *
# ***************************************************************************/

